test/TEST190523/losses1.csv
Element,  Total(W), Total(var),  I2R(W), I2X(var), No-load(W), No-load(var)
Line.MV3PMAI0, 109.6091, 288.6441, 109.6091, 288.6441, 0, 0
Line.MV3PMAI1, 246.3582, 648.8609, 246.3582, 648.8609, 0, 0
Line.MV3PMAI2, 2514.879, 6623.733, 2514.879, 6623.733, 0, 0
Line.MV3PMAI3, 105.2295, 277.1546, 105.2295, 277.1546, 0, 0
Line.MV3PMAI4, 2360.891, 6225.597, 2360.891, 6225.597, 0, 0
Line.MV1PMAI5, 0.005319035, -3.7047, 0.005319035, -3.7047, 0, 0
Line.MV3PMAI6, 432.7756, 1139.859, 432.7756, 1139.859, 0, 0
Line.MV1PMAI7, 0.3915876, -1.010609, 0.3915876, -1.010609, 0, 0
Line.MV1PMAI8, -1.122289E-007, -2.540922, -1.122289E-007, -2.540922, 0, 0
Line.MV3PMAI9, 2442.18, 3218.806, 2442.18, 3218.806, 0, 0
Line.MV3PMAI10, 1771.231, 4668.162, 1771.231, 4668.162, 0, 0
Line.MV3PMAI11, 0.0002988133, -7.198061, 0.0002988133, -7.198061, 0, 0
Line.MV3PMAI12, 47.03548, 42.06013, 47.03548, 42.06013, 0, 0
Line.MV3PMAI13, 23.51767, 21.02956, 23.51767, 21.02956, 0, 0
Line.MV1PMAI14, 1.01445, -2.617877, 1.01445, -2.617877, 0, 0
Line.MV3PMAI15, 1442.322, 3801.625, 1442.322, 3801.625, 0, 0
Line.MV3PMAI16, -8.606709E-006, -0.4799183, -8.606709E-006, -0.4799183, 0, 0
Line.MV1PMAI17, 0.001581315, -20.67245, 0.001581315, -20.67245, 0, 0
Line.MV1PMAI18, 0.7214232, -1.861512, 0.7214232, -1.861512, 0, 0
Line.MV1PMAI19, 5.26637E-006, -22.67578, 5.26637E-006, -22.67578, 0, 0
Line.MV3PMAI20, 0.0004092183, -147.2203, 0.0004092183, -147.2203, 0, 0
Line.MV3PMAI21, 23.51781, 21.03057, 23.51781, 21.03057, 0, 0
Line.MV3PMAI22, 5.044081, 6.444701, 5.044081, 6.444701, 0, 0
Line.MV3PMAI23, 0.001334021, -12.67055, 0.001334021, -12.67055, 0, 0
Line.MV3PMAI24, 0.1308511, -13.35887, 0.1308511, -13.35887, 0, 0
Line.MV3PMAI25, 534.3453, 1408.648, 534.3453, 1408.648, 0, 0
Line.MV3PMAI26, 0.2210396, -22.56395, 0.2210396, -22.56395, 0, 0
Line.MV3PMAI27, 0.2387733, -24.77381, 0.2387733, -24.77381, 0, 0
Line.MV3PMAI28, 0.006964111, -25.24952, 0.006964111, -25.24952, 0, 0
Line.MV1PMAI29, 0.02442934, -9.189166, 0.02442934, -9.189166, 0, 0
Line.MV1PMAI30, 0.004781196, -55.08895, 0.004781196, -55.08895, 0, 0
Line.MV1PMAI31, 0.621528, -1.646874, 0.621528, -1.646874, 0, 0
Line.MV1PMAI32, 0.9919813, -2.696548, 0.9919813, -2.696548, 0, 0
Line.MV3PMAI33, -7.400368E-008, -22.47928, -7.400368E-008, -22.47928, 0, 0
Line.MV3PMAI34, 0.002196133, -92.8301, 0.002196133, -92.8301, 0, 0
Line.MV1PMAI35, 1.065913E-007, -0.867537, 1.065913E-007, -0.867537, 0, 0
Line.MV1PMAI36, 1.989243E-005, -20.83813, 1.989243E-005, -20.83813, 0, 0
Line.MV1PMAI37, 0.03629151, -22.2796, 0.03629151, -22.2796, 0, 0
Line.MV1PMAI38, 0.5774989, -86.80216, 0.5774989, -86.80216, 0, 0
Line.MV3PMAI39, 957.9623, 2525.835, 957.9623, 2525.835, 0, 0
Line.MV3PMAI40, 1349.161, 3557.312, 1349.161, 3557.312, 0, 0
Line.MV3PMAI41, -7.346505E-007, -13.35921, -7.346505E-007, -13.35921, 0, 0
Line.MV3PMAI42, 1417.985, 3738.798, 1417.985, 3738.798, 0, 0
Line.MV3PMAI43, 1661.012, 4379.913, 1661.012, 4379.913, 0, 0
Line.MV3PMAI44, 0.0001075109, -15.34111, 0.0001075109, -15.34111, 0, 0
Line.MV3PMAI45, 1711.685, 4513.485, 1711.685, 4513.485, 0, 0
Line.MV3PMAI46, 8.462678E-007, -11.03933, 8.462678E-007, -11.03933, 0, 0
Line.MV3PMAI47, 1.149839E-006, -11.56851, 1.149839E-006, -11.56851, 0, 0
Line.MV3PMAI48, 1.938172E-007, -11.01925, 1.938172E-007, -11.01925, 0, 0
Line.MV3PMAI49, 0.0006231131, -361.5039, 0.0006231131, -361.5039, 0, 0
Line.MV3PMAI50, 165.2629, 435.784, 165.2629, 435.784, 0, 0
Line.MV3PMAI51, 1706.775, 4500.633, 1706.775, 4500.633, 0, 0
Line.MV3PMAI52, -6.544767E-007, -12.58306, -6.544767E-007, -12.58306, 0, 0
Line.MV3PMAI53, 0.0001204234, -24.5022, 0.0001204234, -24.5022, 0, 0
Line.MV3PMAI54, 0.08122056, -20.35319, 0.08122056, -20.35319, 0, 0
Line.MV3PMAI55, 1304.046, 3439.898, 1304.046, 3439.898, 0, 0
Line.MV3PMAI56, 0.08432888, -21.12662, 0.08432888, -21.12662, 0, 0
Line.MV3PMAI57, 1511.373, 3986.816, 1511.373, 3986.816, 0, 0
Line.MV3PMAI58, 0.1167313, -29.23523, 0.1167313, -29.23523, 0, 0
Line.MV3PMAI59, 0.09836745, -24.62794, 0.09836745, -24.62794, 0, 0
Line.MV1PMAI60, 0.797388, -3.367774, 0.797388, -3.367774, 0, 0
Line.MV3PMAI61, 34.40002, 90.84329, 34.40002, 90.84329, 0, 0
Line.MV1PMAI62, 1.992438E-005, -1.233809, 1.992438E-005, -1.233809, 0, 0
Line.MV3PMAI63, 1271.883, 3358.79, 1271.883, 3358.79, 0, 0
Line.MV3PMAI64, 1742.176, 4598.189, 1742.176, 4598.189, 0, 0
Line.MV3PMAI65, 391.2609, 1033.239, 391.2609, 1033.239, 0, 0
Line.MV3PMAI66, 0.0005239263, -24.74806, 0.0005239263, -24.74806, 0, 0
Line.MV3PMAI67, 0.0004911643, -22.95023, 0.0004911643, -22.95023, 0, 0
Line.MV1PMAI68, 0.0310481, -0.1012839, 0.0310481, -0.1012839, 0, 0
Line.MV3PMAI69, 1371.781, 3621.135, 1371.781, 3621.135, 0, 0
Line.MV1PMAI70, 0.01366035, -63.67748, 0.01366035, -63.67748, 0, 0
Line.MV1PMAI71, 1.358183, -5.7356, 1.358183, -5.7356, 0, 0
Line.MV1PMAI72, 1.425572, -6.019259, 1.425572, -6.019259, 0, 0
Line.MV3PMAI73, 0.2509784, -12.33363, 0.2509784, -12.33363, 0, 0
Line.MV3PMAI74, 1347.575, 3553.582, 1347.575, 3553.582, 0, 0
Line.MV3PMAI75, 0.8189256, -481.6876, 0.8189256, -481.6876, 0, 0
Line.MV3PMAI76, 1548.22, 4083.543, 1548.22, 4083.543, 0, 0
Line.MV3PMAI77, 0.002737072, -22.15609, 0.002737072, -22.15609, 0, 0
Line.MV3PMAI78, 646.5615, 1665.288, 646.5615, 1665.288, 0, 0
Line.MV3PMAI79, 323.2801, 832.6383, 323.2801, 832.6383, 0, 0
Line.MV3PMAI80, 0.001860411, -5.469987, 0.001860411, -5.469987, 0, 0
Line.MV3PMAI81, 34.40001, 90.84329, 34.40001, 90.84329, 0, 0
Line.MV3PMAI82, 0.002809019, -96.12188, 0.002809019, -96.12188, 0, 0
Line.MV3PMAI83, 553.8792, 1436.903, 553.8792, 1436.903, 0, 0
Line.MV3PMAI84, 276.9404, 718.4549, 276.9404, 718.4549, 0, 0
Line.MV3PMAI85, 2657.244, 6998.645, 2657.244, 6998.645, 0, 0
Line.MV3PMAI86, 276.9402, 718.4516, 276.9402, 718.4516, 0, 0
Line.MV1PMAI87, 4.969705, 2.709104, 4.969705, 2.709104, 0, 0
Line.MV3PMAI88, 621.3387, 1647.158, 621.3387, 1647.158, 0, 0
Line.MV3PMAI89, 323.2806, 832.6472, 323.2806, 832.6472, 0, 0
Line.MV3PMAI90, -5.593792E-007, -12.47316, -5.593792E-007, -12.47316, 0, 0
Line.MV3PMAI91, 1.575921E-005, -42.37039, 1.575921E-005, -42.37039, 0, 0
Line.MV3PMAI92, 222.3505, 284.1013, 222.3505, 284.1013, 0, 0
Line.MV3PMAI93, 91.91683, 117.391, 91.91683, 117.391, 0, 0
Line.MV3PMAI94, 0.01799068, -183.0354, 0.01799068, -183.0354, 0, 0
Line.MV3PMAI95, 55.08158, 70.37731, 55.08158, 70.37731, 0, 0
Line.MV3PMAI96, 109.2594, 140.1928, 109.2594, 140.1928, 0, 0
Line.MV3PMAI97, 181.9506, 233.4699, 181.9506, 233.4699, 0, 0
Line.MV3PMAI98, 1.282474, -7.727648, 1.282474, -7.727648, 0, 0
Line.MV1PMAI99, -6.224844E-009, -4.202436, -6.224844E-009, -4.202436, 0, 0
Line.MV3PMAI100, 184.569, 234.5209, 184.569, 234.5209, 0, 0
Line.MV3PMAI101, 172.8337, 224.4231, 172.8337, 224.4231, 0, 0
Line.MV1PMAI102, 0.125397, 0.03302976, 0.125397, 0.03302976, 0, 0
Line.MV1PMAI103, 6.155783, 1.621904, 6.155783, 1.621904, 0, 0
Line.MV1PMAI104, 0.1228146, 0.03170176, 0.1228146, 0.03170176, 0, 0
Line.MV1PMAI105, 0.1253968, 0.03303004, 0.1253968, 0.03303004, 0, 0
Line.MV1PMAI106, 0.2318076, 0.0451578, 0.2318076, 0.0451578, 0, 0
Line.MV3PMAI107, 181.1283, 230.8895, 181.1283, 230.8895, 0, 0
Line.MV3PMAI108, 182.8532, 233.0974, 182.8532, 233.0974, 0, 0
Line.MV3PMAI109, 197.4533, 251.7196, 197.4533, 251.7196, 0, 0
Line.MV1PMAI110, 1.189787, -3.147357, 1.189787, -3.147357, 0, 0
Line.MV3PMAI111, 134.2884, 164.7068, 134.2884, 164.7068, 0, 0
Line.MV3PMAI112, 0.004380408, -71.127, 0.004380408, -71.127, 0, 0
Line.MV1PMAI113, 5.021371, 0.9785926, 5.021371, 0.9785926, 0, 0
Line.MV1PMAI114, 1.717296, 0.3348544, 1.717296, 0.3348544, 0, 0
Line.MV1PMAI115, 0.2356952, 0.04591378, 0.2356952, 0.04591378, 0, 0
Line.MV1PMAI116, 3.231132, -1.414017, 3.231132, -1.414017, 0, 0
Line.MV1PMAI117, 0.01100957, -1.907647, 0.01100957, -1.907647, 0, 0
Line.MV1PMAI118, 0.04253123, -3.228138, 0.04253123, -3.228138, 0, 0
Line.MV1PMAI119, 1.480777, -6.210966, 1.480777, -6.210966, 0, 0
Line.MV1PMAI120, 8.714118, 2.208769, 8.714118, 2.208769, 0, 0
Line.MV1PMAI121, 0.2390963, -6.155086, 0.2390963, -6.155086, 0, 0
Line.MV1PMAI122, 0.2741928, -4.309881, 0.2741928, -4.309881, 0, 0
Line.MV1PMAI123, 0.2188652, -5.763394, 0.2188652, -5.763394, 0, 0
Line.MV1PMAI124, 3.492523E-005, -2.119103, 3.492523E-005, -2.119103, 0, 0
Line.MV1PMAI125, 1.765251, -4.647033, 1.765251, -4.647033, 0, 0
Line.MV1PMAI126, 0.004336754, -50.00325, 0.004336754, -50.00325, 0, 0
Line.MV1PMAI127, 0.004692199, -54.13821, 0.004692199, -54.13821, 0, 0
Line.MV3PMAI128, 130.5378, 158.6172, 130.5378, 158.6172, 0, 0
Line.MV1PMAI129, 0.02224063, -29.16597, 0.02224063, -29.16597, 0, 0
Line.MV1PMAI130, 0.01254093, -25.32811, 0.01254093, -25.32811, 0, 0
Line.MV1PMAI131, 0.7544837, -139.1607, 0.7544837, -139.1607, 0, 0
Line.MV1PMAI132, 0.1048996, -7.96044, 0.1048996, -7.96044, 0, 0
Line.MV1PMAI133, 0.06631256, -5.031097, 0.06631256, -5.031097, 0, 0
Line.MV1PMAI134, 0.3355648, -5.27373, 0.3355648, -5.27373, 0, 0
Line.MV1PMAI135, 1.534845, -4.039861, 1.534845, -4.039861, 0, 0
Line.MV1PMAI136, 0.6447424, -6.037561, 0.6447424, -6.037561, 0, 0
Line.MV1PMAI137, 0.1143396, -4.123329, 0.1143396, -4.123329, 0, 0
Line.MV1PMAI138, 0.06414502, -4.865832, 0.06414502, -4.865832, 0, 0
Line.MV1PMAI139, 0.07237867, -5.489442, 0.07237867, -5.489442, 0, 0
Line.MV1PMAI140, 0.0001649284, -7.304355, 0.0001649284, -7.304355, 0, 0
Line.MV1PMAI141, 0.0001311141, -5.671436, 0.0001311141, -5.671436, 0, 0
Line.MV3PMAI142, 0.002796689, -3.851957, 0.002796689, -3.851957, 0, 0
Line.MV3PMAI143, 0.007536911, -121.5587, 0.007536911, -121.5587, 0, 0
Line.MV3PMAI144, 170.8222, 207.5763, 170.8222, 207.5763, 0, 0
Line.MV3PMAI145, 157.4468, 192.3989, 157.4468, 192.3989, 0, 0
Line.MV3PMAI146, -3.252954E-007, -20.60948, -3.252954E-007, -20.60948, 0, 0
Line.MV1PMAI147, 0.3379822, -5.450268, 0.3379822, -5.450268, 0, 0
Line.MV1PMAI148, 0.0001313725, -5.563877, 0.0001313725, -5.563877, 0, 0
Line.MV3PMAI149, 71.96827, 88.31591, 71.96827, 88.31591, 0, 0
Line.MV3PMAI150, 0.03512245, -10.32861, 0.03512245, -10.32861, 0, 0
Line.MV1PMAI151, 0.007470794, -0.1259456, 0.007470794, -0.1259456, 0, 0
Line.MV1PMAI152, 0.1750813, -3.0162, 0.1750813, -3.0162, 0, 0
Line.MV1PMAI153, 0.1573791, -2.753725, 0.1573791, -2.753725, 0, 0
Line.MV1PMAI154, 0.2746898, -4.907328, 0.2746898, -4.907328, 0, 0
Line.MV1PMAI155, 0.3023897, -5.626083, 0.3023897, -5.626083, 0, 0
Line.MV1PMAI156, 8.286604E-005, -5.089483, 8.286604E-005, -5.089483, 0, 0
Line.MV1PMAI157, 0.0006726663, -7.097872, 0.0006726663, -7.097872, 0, 0
Line.MV1PMAI158, -2.715512E-008, -0.07481588, -2.715512E-008, -0.07481588, 0, 0
Line.MV3PMAI159, 2.872948E-007, -19.19692, 2.872948E-007, -19.19692, 0, 0
Line.MV3PMAI160, 2.479921, -11.3112, 2.479921, -11.3112, 0, 0
Line.MV3PMAI161, 36.23264, 39.24612, 36.23264, 39.24612, 0, 0
Line.MV3PMAI162, 0.2302331, -1.002204, 0.2302331, -1.002204, 0, 0
Line.MV3PMAI163, 1.530927, -29.84423, 1.530927, -29.84423, 0, 0
Line.MV3PMAI164, 84.80581, 92.13766, 84.80581, 92.13766, 0, 0
Line.MV3PMAI165, 3.941906, -26.7453, 3.941906, -26.7453, 0, 0
Line.MV3PMAI166, 3.978857, -26.99363, 3.978857, -26.99363, 0, 0
Line.MV1PMAI167, 1.508089, -3.061773, 1.508089, -3.061773, 0, 0
Line.MV3PMAI168, 0.4932011, -25.31415, 0.4932011, -25.31415, 0, 0
Line.MV1PMAI169, -5.326577E-008, -1.586243, -5.326577E-008, -1.586243, 0, 0
Line.MV3PMAI170, 1.156181, -22.53743, 1.156181, -22.53743, 0, 0
Line.MV3PMAI171, 0.07911598, -23.5991, 0.07911598, -23.5991, 0, 0
Line.MV3PMAI172, 0.08899497, -26.54166, 0.08899497, -26.54166, 0, 0
Line.MV3PMAI173, 0.8617904, -28.60885, 0.8617904, -28.60885, 0, 0
Line.MV3PMAI174, 0.5125925, -17.61278, 0.5125925, -17.61278, 0, 0
Line.MV1PMAI175, 0.0001214693, -12.83408, 0.0001214693, -12.83408, 0, 0
Line.MV3PMAI176, 1.024868, -301.2578, 1.024868, -301.2578, 0, 0
Line.MV3PMAI177, 0.07501829, -22.0807, 0.07501829, -22.0807, 0, 0
Line.MV3PMAI178, 0.07585842, -22.32589, 0.07585842, -22.32589, 0, 0
Line.MV3PMAI179, 0.03647706, -16.03189, 0.03647706, -16.03189, 0, 0
Line.MV3PMAI180, 0.01250029, -40.56922, 0.01250029, -40.56922, 0, 0
Line.MV1PMAI181, 1.309328, -4.260863, 1.309328, -4.260863, 0, 0
Line.MV3PMAI182, 0.2166575, -29.81362, 0.2166575, -29.81362, 0, 0
Line.MV3PMAI183, 0.254559, -35.02335, 0.254559, -35.02335, 0, 0
Line.MV3PMAI184, 73.44733, 79.80226, 73.44733, 79.80226, 0, 0
Line.MV3PMAI185, 1.520261E-007, -17.36187, 1.520261E-007, -17.36187, 0, 0
Line.MV3PMAI186, 0.0006164594, -15.72056, 0.0006164594, -15.72056, 0, 0
Line.MV3PMAI187, 89.2506, 98.34849, 89.2506, 98.34849, 0, 0
Line.MV3PMAI188, 0.09286393, -23.15042, 0.09286393, -23.15042, 0, 0
Line.MV3PMAI189, 0.5168025, -18.0313, 0.5168025, -18.0313, 0, 0
Line.MV1PMAI190, 0.001234466, -1.61747, 0.001234466, -1.61747, 0, 0
Line.MV3PMAI191, 0.7821196, -23.4019, 0.7821196, -23.4019, 0, 0
Line.MV3PMAI192, 0.004861795, -8.096502, 0.004861795, -8.096502, 0, 0
Line.MV3PMAI193, 0.04055829, -1.213683, 0.04055829, -1.213683, 0, 0
Line.MV3PMAI194, 0.735354, -25.6797, 0.735354, -25.6797, 0, 0
Line.MV3PMAI195, 0.0002064424, -248.8687, 0.0002064424, -248.8687, 0, 0
Line.MV1PMAI196, 0.0003276277, -1.717735, 0.0003276277, -1.717735, 0, 0
Line.MV3PMAI197, 0.8878013, -31.19661, 0.8878013, -31.19661, 0, 0
Line.MV3PMAI198, -8.085556E-007, -5.51536, -8.085556E-007, -5.51536, 0, 0
Line.MV3PMAI199, -7.986497E-007, -11.51668, -7.986497E-007, -11.51668, 0, 0
...
Transformer.HVMV, -7.450581E-009, 175380.5, -7.450581E-009, 175380.5, 0, 0
Transformer.MAI1P_1, 280.22, 1031.959, 0.2326069, 0.4265432, 279.9874, 1031.533
Transformer.MAI1P_2, 181.3548, 489.4351, 0.6068644, 0.9270462, 180.748, 488.508
Transformer.MAI1P_3, 353.5575, 1276.443, 0.2411141, 0.5785723, 353.3164, 1275.865
Transformer.MAI1P_4, 697.2375, 1192.683, 513.9385, 697.28, 183.299, 495.4028
Transformer.MAI1P_5, 289.4547, 557.2954, 132.807, 165.676, 156.6477, 391.6194
Transformer.MAI1P_6, 278.4251, 1025.349, 0.231117, 0.4238111, 278.194, 1024.925
Transformer.MAI1P_7, 162.1917, 405.428, 0.08533581, 0.162146, 162.1063, 405.2658
Transformer.MAI1P_8, 277.8588, 469.7115, 164.8147, 157.0364, 113.0441, 312.6751
Transformer.MAI1P_9, 241.3417, 571.0574, 62.83858, 88.61649, 178.5031, 482.4409
Transformer.MAI1P_10, 232.9559, 559.3799, 54.34536, 76.64879, 178.6105, 482.7311
Transformer.MAI1P_11, 182.8226, 492.1102, 1.60561, 2.334567, 181.217, 489.7756
Transformer.MAI1P_12, 292.1425, 1046.918, 13.49391, 20.31824, 278.6486, 1026.6
Transformer.MAI1P_13, 292.9747, 1074.161, 2.426717, 3.720679, 290.548, 1070.44
Transformer.MAI1P_14, 295.6694, 1076.594, 5.857601, 8.86683, 289.8118, 1067.728
Transformer.MAI1P_15, 191.7361, 513.8416, 3.431508, 4.910259, 188.3046, 508.9314
Transformer.MAI1P_16, 82.52148, 206.1847, 0.07532229, 0.06929223, 82.44616, 206.1154
Transformer.MAI1P_17, 297.9644, 486.0963, 186.1702, 176.8783, 111.7942, 309.218
Transformer.MAI1P_18, 279.055, 1027.669, 0.2316399, 0.4247699, 278.8234, 1027.244
Transformer.MAI1P_19, 184.3309, 493.9816, 3.310176, 4.736393, 181.0207, 489.2452
Transformer.MAI1P_20, 88.29804, 208.6674, 6.421242, 3.975432, 81.8768, 204.692
Transformer.MAI1P_21, 280.228, 1031.988, 0.2326135, 0.4265554, 279.9954, 1031.562
Transformer.MAI1P_22, 237.8587, 500.2706, 71.75285, 85.00598, 166.1058, 415.2646
Transformer.MAI1P_23, 295.7786, 1053.192, 16.75508, 25.2101, 279.0236, 1027.982
Transformer.MAI1P_24, 283.3307, 1035.65, 3.789703, 5.762118, 279.541, 1029.888
Transformer.MAI1P_25, 329.0553, 1101.537, 50.75045, 76.20306, 278.3049, 1025.334
Transformer.MAI1P_26, 292.1448, 1046.933, 13.49118, 20.31414, 278.6536, 1026.619
Transformer.MAI1P_27, 115.3266, 318.8546, 0.09137117, 0.1188695, 115.2352, 318.7357
Transformer.MAI1P_28, 279.0555, 1027.67, 0.2316402, 0.4247706, 278.8238, 1027.246
Transformer.MAI1P_29, 279.162, 1023.074, 2.515169, 3.849508, 276.6468, 1019.225
Transformer.MAI1P_30, 160.2781, 400.6447, 0.08432901, 0.160233, 160.1938, 400.4845
Transformer.MAI1P_31, 279.9514, 1030.97, 0.232384, 0.4261344, 279.7191, 1030.544
Transformer.MAI1P_32, 205.2437, 532.1548, 17.49582, 24.728, 187.7479, 507.4268
Transformer.MAI1P_33, 180.8441, 488.7212, 0.0916542, 0.2010515, 180.7525, 488.5202
Transformer.MAI1P_34, 278.7742, 469.4272, 166.3643, 158.5064, 112.4098, 310.9208
Transformer.MAI1P_35, 161.6833, 404.1573, 0.08506835, 0.1616378, 161.5983, 403.9956
Transformer.MAI1P_36, 161.6733, 404.1322, 0.08506307, 0.1616278, 161.5882, 403.9706
Transformer.MAI1P_37, 281.4158, 1031.786, 2.328914, 3.570795, 279.0869, 1028.215
Transformer.MAI1P_38, 2743.524, 1946.192, 2669.911, 1762.16, 73.61303, 184.0326
Transformer.MAI1P_39, 207.6077, 526.5593, 26.75823, 37.77686, 180.8495, 488.7824
Transformer.MAI1P_40, 279.7082, 625.7025, 100.3806, 141.0335, 179.3275, 484.669
Transformer.MAI1P_41, 288.7187, 1063.257, 0.2396616, 0.4394797, 288.4791, 1062.818
Transformer.MAI1P_42, 302.2263, 1083.17, 13.90677, 20.9402, 288.3196, 1062.23
Transformer.MAI1P_43, 302.2065, 1083.127, 13.89322, 20.91988, 288.3133, 1062.207
Transformer.MAI1P_44, 305.2909, 1061.76, 28.04313, 40.32055, 277.2477, 1021.439
Transformer.MAI1P_45, 172.306, 416.9935, 11.47549, 14.91724, 160.8305, 402.0762
Transformer.MAI1P_46, 278.9306, 1027.211, 0.2315366, 0.4245805, 278.6991, 1026.786
Transformer.MAI1P_47, 161.6947, 404.1857, 0.08507433, 0.1616492, 161.6096, 404.024
Transformer.MAI1P_48, 374.9858, 676.8524, 216.2592, 280.0359, 158.7266, 396.8165
Transformer.MAI1P_49, 288.8451, 1063.723, 0.2397665, 0.4396721, 288.6054, 1063.283
Transformer.MAI1P_50, 1484.772, 1602.29, 1376.564, 1302.99, 108.2085, 299.3001
Transformer.MAI1P_51, 180.8912, 385.4168, 63.43596, 60.54063, 117.4552, 324.8761
Transformer.MAI1P_52, 181.3382, 490.0565, 0.09190463, 0.2016008, 181.2463, 489.8549
Transformer.MAI1P_53, 279.3294, 1028.679, 0.2318676, 0.4251875, 279.0975, 1028.254
Transformer.MAI1P_54, 404.1753, 588.4452, 292.2104, 278.7549, 111.9649, 309.6903
Transformer.MAI1P_55, 309.4116, 1093.461, 21.31486, 32.05231, 288.0968, 1061.409
Transformer.MAI1P_56, 212.2616, 531.7799, 32.44541, 45.79021, 179.8162, 485.9896
Transformer.MAI1P_57, 278.7975, 1026.72, 0.2314261, 0.4243779, 278.5661, 1026.296
Transformer.MAI1P_58, 161.7323, 404.2798, 0.08509415, 0.1616869, 161.6473, 404.1181
Transformer.MAI1P_59, 288.8452, 1063.723, 0.2397665, 0.4396722, 288.6054, 1063.283
Transformer.MAI1P_60, 220.3298, 551.934, 33.72444, 47.59519, 186.6053, 504.3388
Transformer.MAI1P_61, 252.8284, 527.2077, 86.93966, 112.4859, 165.8887, 414.7218
Transformer.MAI1P_62, 182.9789, 431.3535, 21.70539, 28.16978, 161.2735, 403.1837
Transformer.MAI1P_63, 390.9457, 1212.011, 103.9972, 154.8319, 286.9485, 1057.179
Transformer.MAI1P_64, 202.2197, 519.0782, 21.28424, 30.06352, 180.9354, 489.0146
Transformer.MAI1P_65, 167.0823, 417.653, 0.08790897, 0.1670353, 166.9944, 417.4859
Transformer.MAI1P_66, 161.6779, 404.1436, 0.08506548, 0.1616324, 161.5928, 403.982
Transformer.MAI1P_67, 156.7194, 362.9682, 38.92894, 37.16476, 117.7905, 325.8035
Transformer.MAI1P_68, 251.0441, 593.9615, 65.40624, 92.23741, 185.6379, 501.7241
Transformer.MAI1P_69, 181.2892, 489.924, 0.09187976, 0.2015463, 181.1973, 489.7224
Transformer.MAI1P_70, 251.7318, 518.4616, 91.94347, 118.9908, 159.7883, 399.4709
Transformer.MAI1P_71, 289.3851, 573.3835, 124.6378, 161.5153, 164.7473, 411.8682
Transformer.MAI1P_72, 195.5345, 517.0785, 8.864728, 12.56554, 186.6698, 504.513
Transformer.MAI1P_73, 208.2626, 534.7282, 21.81341, 30.81136, 186.4492, 503.9168
Transformer.MAI1P_74, 288.8382, 1063.697, 0.2397608, 0.4396616, 288.5985, 1063.258
Transformer.MAI1P_75, 212.7551, 469.2571, 52.03784, 67.46397, 160.7172, 401.7931
Transformer.MAI1P_76, 181.2657, 489.8606, 0.09186788, 0.2015202, 181.1739, 489.6591
Transformer.MAI1P_77, 204.3759, 464.773, 38.37098, 49.76085, 166.0049, 415.0122
Transformer.MAI1P_78, 190.4279, 510.323, 3.417843, 4.890489, 187.01, 505.4325
Transformer.MAI1P_79, 161.3797, 403.3984, 0.08490861, 0.1613343, 161.2948, 403.237
Transformer.MAI1P_80, 911.1714, 1510.919, 735.3787, 1035.803, 175.7927, 475.1153
Transformer.MAI1P_81, 161.6734, 404.1324, 0.08506312, 0.1616279, 161.5883, 403.9708
Transformer.MAI1P_82, 189.106, 386.2629, 75.50728, 72.05376, 113.5987, 314.2092
Transformer.MAI1P_83, 287.6482, 570.9431, 122.9224, 159.1286, 164.7258, 411.8145
Transformer.MAI1P_84, 221.3549, 479.2921, 61.55527, 79.7931, 159.7996, 399.499
Transformer.MAI1P_85, 295.6264, 1053.123, 16.47972, 24.68813, 279.1467, 1028.435
Transformer.MAI1P_86, 217.7491, 481.3015, 52.26807, 67.59906, 165.481, 413.7025
Transformer.MAI1P_87, 301.7655, 1082.354, 13.45372, 20.15211, 288.3118, 1062.201
Transformer.MAI1P_88, 181.4655, 490.4004, 0.09196911, 0.2017423, 181.3735, 490.1986
Transformer.MAI1P_89, 181.2657, 489.8606, 0.09186788, 0.2015202, 181.1739, 489.6591
Transformer.MAI1P_90, 236.3326, 430.4673, 123.1988, 117.5441, 113.1338, 312.9232
Transformer.MAI1P_91, 281.4149, 1031.784, 2.328127, 3.569615, 279.0868, 1028.215
Transformer.MAI1P_92, 241.3913, 580.3206, 55.67722, 78.3906, 185.7141, 501.93
Transformer.MAI1P_93, 353.3866, 1273.002, 1.973129, 4.00843, 351.4135, 1268.993
Transformer.MAI1P_94, 280.733, 555.7768, 121.2962, 157.1847, 159.4369, 398.5921
Transformer.MAI1P_95, 278.8014, 1026.735, 0.2314293, 0.4243838, 278.5699, 1026.31
Transformer.MAI1P_96, 163.6377, 406.6619, 2.062053, 2.722753, 161.5757, 403.9391
Transformer.MAI1P_97, 280.3707, 1032.514, 0.232732, 0.4267725, 280.1379, 1032.087
Transformer.MAI1P_98, 280.3706, 1032.514, 0.2327319, 0.4267725, 280.1379, 1032.087
Transformer.MAI1P_99, 163.6353, 406.6575, 2.060604, 2.720876, 161.5747, 403.9366
Transformer.MAI1P_100, 163.6348, 406.6575, 2.059746, 2.719765, 161.5751, 403.9377
Transformer.MAI1P_101, 352.1057, 1271.202, 0.240124, 0.5761965, 351.8655, 1270.626
Transformer.MAI1P_102, 115.1611, 318.3969, 0.09124003, 0.1186989, 115.0698, 318.2782
Transformer.MAI1P_103, 281.9381, 1030.536, 3.782035, 5.750232, 278.1561, 1024.786
Transformer.MAI1P_104, 168.1647, 411.5851, 7.370341, 9.59918, 160.7944, 401.9859
Transformer.MAI1P_105, 188.3312, 437.0919, 28.04975, 36.38832, 160.2815, 400.7036
Transformer.MAI1P_106, 187.2367, 505.9968, 0.09489404, 0.2081583, 187.1418, 505.7886
Transformer.MAI1P_107, 161.6905, 404.1753, 0.08507214, 0.161645, 161.6055, 404.0136
Transformer.MAI1P_108, 161.3969, 403.4414, 0.08491767, 0.1613515, 161.312, 403.28
Transformer.MAI1P_109, 129.8813, 336.6634, 12.37293, 11.64009, 117.5084, 325.0233
Transformer.MAI1P_110, 217.4179, 545.5241, 32.48857, 45.71512, 184.9293, 499.809
Transformer.MAI1P_111, 118.2739, 327.0034, 0.0937063, 0.1219074, 118.1802, 326.8815
Transformer.MAI1P_112, 118.7093, 328.2071, 0.09405123, 0.1223562, 118.6152, 328.0847
Transformer.MAI1P_113, 280.0411, 1031.3, 0.2324584, 0.4262709, 279.8087, 1030.874
Transformer.MAI1P_114, 510.1548, 1383.976, 226.9105, 340.4448, 283.2443, 1043.532
Transformer.MAI1P_115, 186.1597, 503.0863, 0.09434821, 0.206961, 186.0654, 502.8793
Transformer.MAI1P_116, 180.7115, 488.3628, 0.09158699, 0.200904, 180.6199, 488.1619
Transformer.MAI1P_117, 489.0587, 1351.146, 206.0211, 308.3765, 283.0375, 1042.77
Transformer.MAI1P_118, 137.5476, 343.9738, 20.14744, 19.24995, 117.4002, 324.7239
Transformer.MAI1P_119, 250.9311, 585.2988, 71.86452, 101.3351, 179.0666, 483.9637
Transformer.MAI1P_120, 166.0348, 415.0345, 0.08735783, 0.1659881, 165.9474, 414.8685
Transformer.MAI1P_121, 354.4249, 1279.575, 0.2417057, 0.5799918, 354.1832, 1278.995
Transformer.MAI1P_122, 351.6099, 1269.412, 0.2397859, 0.5753851, 351.3701, 1268.836
Transformer.MAI1P_123, 162.4237, 406.0079, 0.08545787, 0.162378, 162.3382, 405.8455
Transformer.MAI1P_124, 291.1186, 567.8098, 132.3757, 170.9523, 158.743, 396.8575
Transformer.MAI1P_125, 195.8746, 445.9462, 36.21537, 46.79811, 159.6592, 399.148
Transformer.MAI1P_126, 162.447, 406.0663, 0.08547017, 0.1624013, 162.3616, 405.9039
Transformer.MAI1P_127, 161.1265, 402.7653, 0.08477536, 0.1610811, 161.0417, 402.6042
Transformer.MAI1P_128, 430.6307, 748.3989, 271.9956, 351.8111, 158.6351, 396.5878
Transformer.MAI1P_129, 186.1546, 503.0725, 0.09434563, 0.2069554, 186.0603, 502.8656
Transformer.MAI1P_130, 295.5354, 1071.221, 8.091576, 12.21715, 287.4438, 1059.004
Transformer.MAI1P_131, 411.5259, 600.5781, 296.6261, 282.7703, 114.8997, 317.8077
Transformer.MAI1P_132, 186.1398, 503.0324, 0.09433811, 0.2069389, 186.0454, 502.8255
Transformer.MAI1P_133, 82.11688, 205.1738, 0.074953, 0.0689525, 82.04193, 205.1048
Transformer.MAI1P_134, 195.6738, 508.2761, 15.84844, 22.26158, 179.8254, 486.0145
Transformer.MAI1P_135, 373.5605, 1311.526, 23.02471, 45.70213, 350.5358, 1265.824
Transformer.MAI1P_136, 423.4956, 832.4567, 240.5255, 337.943, 182.9701, 494.5137
Transformer.MAI1P_137, 201.7666, 518.2471, 20.97994, 29.63468, 180.7866, 488.6124
Transformer.MAI1P_138, 313.7218, 1079.672, 34.84731, 52.23933, 278.8745, 1027.432
Transformer.MAI1P_139, 224.5576, 484.0338, 64.09878, 82.88681, 160.4588, 401.147
Transformer.MAI1P_140, 227.6797, 428.7872, 110.919, 105.832, 116.7607, 322.9553
Transformer.MAI1P_141, 162.4487, 406.0706, 0.08547107, 0.162403, 162.3633, 405.9082
Transformer.MAI1P_142, 196.5348, 448.4978, 35.60724, 46.17892, 160.9275, 402.3189
Transformer.MAI1P_143, 287.3629, 1041.643, 7.8473, 11.84853, 279.5156, 1029.794
Transformer.MAI1P_144, 278.4098, 1025.293, 0.2311021, 0.4237844, 278.1787, 1024.869
Transformer.MAI1P_145, 295.6545, 1071.347, 8.234471, 12.43149, 287.42, 1058.916
Transformer.MAI1P_146, 162.9227, 406.4621, 0.744, 1.015457, 162.1787, 405.4466
Transformer.MAI1P_147, 355.1304, 738.5795, 170.9676, 240.8422, 184.1628, 497.7373
Transformer.MAI1P_148, 280.367, 1027.187, 2.601052, 3.838858, 277.7659, 1023.348
Transformer.MAI1P_149, 226.9822, 553.2678, 46.59011, 65.72164, 180.3921, 487.5461
Transformer.MAI1P_150, 364.7976, 1167.721, 80.56728, 120.5567, 284.2304, 1047.164
Transformer.MAI1P_151, 223.3587, 548.3463, 42.8242, 60.41521, 180.5345, 487.931
Transformer.MAI1P_152, 286.8135, 1056.241, 0.2380801, 0.4365796, 286.5754, 1055.804
Transformer.MAI1P_153, 220.0419, 414.416, 107.1909, 102.2749, 112.851, 312.1411
Transformer.MAI1P_154, 351.7822, 1270.034, 0.2399034, 0.5756671, 351.5423, 1269.458
Transformer.MAI1P_155, 288.9451, 571.619, 125.1892, 162.2293, 163.7559, 409.3897
Transformer.MAI1P_156, 186.2096, 503.2211, 0.09437349, 0.2070165, 186.1152, 503.0141
Transformer.MAI1P_157, 225.8509, 426.2619, 109.521, 104.4984, 116.3299, 321.7635
Transformer.MAI1P_158, 185.0356, 495.8691, 3.323491, 4.75543, 181.7121, 491.1137
Transformer.MAI1P_159, 181.7952, 491.2914, 0.09213621, 0.2021088, 181.703, 491.0893
Transformer.MAI1P_160, 301.3723, 1078.268, 14.64567, 21.90721, 286.7266, 1056.361
Transformer.MAI1P_161, 238.1241, 505.9559, 74.08618, 95.86115, 164.0379, 410.0947
Transformer.MAI1P_162, 121.5285, 329.4546, 3.708697, 3.569991, 117.8198, 325.8846
Transformer.MAI1P_163, 286.8131, 1056.239, 0.2380798, 0.4365791, 286.575, 1055.803
Transformer.MAI1P_164, 187.1222, 505.6873, 0.094836, 0.208031, 187.0273, 505.4793
Transformer.MAI1P_165, 354.0339, 546.042, 238.6828, 226.9858, 115.3511, 319.0561
Transformer.MAI1P_166, 223.1445, 553.0836, 38.35516, 53.65284, 184.7894, 499.4307
Transformer.MAI1P_167, 224.8465, 548.6621, 45.57929, 64.15598, 179.2672, 484.5061
Transformer.MAI1P_168, 181.7563, 428.4117, 21.60985, 28.04565, 160.1464, 400.3661
Transformer.MAI1P_169, 785.5066, 665.0755, 705.8208, 465.8611, 79.68577, 199.2144
Transformer.MAI1P_170, 166.0374, 415.0411, 0.08735921, 0.1659907, 165.95, 414.8751
Transformer.MAI1P_171, 178.5707, 381.5323, 61.92782, 58.90296, 116.6429, 322.6293
Transformer.MAI1P_172, 187.9976, 436.3998, 27.93193, 36.23562, 160.0657, 400.1642
Transformer.MAI1P_173, 351.5971, 1269.366, 0.2397772, 0.5753643, 351.3573, 1268.79
Transformer.MAI1P_174, 165.29, 369.2536, 48.43471, 46.03685, 116.8553, 323.2167
Transformer.MAI1P_175, 288.0742, 570.4053, 124.3893, 161.193, 163.6849, 409.2122
Transformer.MAI1P_176, 206.0757, 522.7762, 26.48138, 37.38624, 179.5943, 485.39
Transformer.MAI1P_177, 206.268, 523.2695, 26.50185, 37.41516, 179.7661, 485.8544
Transformer.MAI1P_178, 185.0363, 495.8703, 3.324056, 4.756226, 181.7122, 491.1141
Transformer.MAI1P_179, 242.9184, 575.6292, 62.59914, 88.27982, 180.3193, 487.3494
Transformer.MAI1P_180, 186.2081, 503.2172, 0.09437276, 0.2070149, 186.1138, 503.0102
Transformer.MAI1P_181, 166.0313, 415.0259, 0.08735602, 0.1659846, 165.944, 414.8599
Transformer.MAI1P_182, 367.63, 671.9598, 204.7247, 264.6965, 162.9053, 407.2633
Transformer.MAI1P_183, 181.7601, 428.4205, 21.61053, 28.04654, 160.1496, 400.374
Transformer.MAI1P_184, 186.9961, 505.3465, 0.09477209, 0.2078908, 186.9013, 505.1386
Transformer.MAI1P_185, 385.338, 774.3872, 206.5059, 291.0571, 178.8322, 483.3301
Transformer.MAI1P_186, 278.5739, 1025.897, 0.2312405, 0.4240376, 278.3427, 1025.473
Transformer.MAI1P_187, 188.5209, 498.602, 8.492157, 12.03791, 180.0287, 486.5641
Transformer.MAI1P_188, 280.2599, 1032.106, 0.23264, 0.4266039, 280.0272, 1031.679
Transformer.MAI1P_189, 118.2921, 327.0535, 0.09372066, 0.1219261, 118.1983, 326.9316
Transformer.MAI1P_190, 115.5149, 319.3753, 0.0915204, 0.1190637, 115.4234, 319.2563
Transformer.MAI1P_191, 351.7825, 1270.035, 0.2399036, 0.5756676, 351.5426, 1269.459
Transformer.MAI1P_192, 118.2601, 326.965, 0.09369531, 0.1218931, 118.1664, 326.8431
Transformer.MAI1P_193, 118.2772, 327.0124, 0.09370889, 0.1219108, 118.1835, 326.8905
Transformer.MAI1P_194, 285.3825, 1034.351, 7.845215, 11.84486, 277.5373, 1022.506
Transformer.MAI1P_195, 278.5456, 1025.793, 0.231217, 0.4239945, 278.3144, 1025.369
Transformer.MAI1P_196, 353.6707, 1276.852, 0.2411914, 0.5787576, 353.4295, 1276.273
Transformer.MAI1P_197, 177.3817, 424.1832, 16.0413, 20.83221, 161.3404, 403.351
Transformer.MAI1P_198, 280.0253, 1031.242, 0.2324452, 0.4262468, 279.7928, 1030.816
Transformer.MAI1P_199, 280.0313, 1031.264, 0.2324503, 0.426256, 279.7989, 1030.838
...
Capacitor.CAP0, 7.275958E-012, -287925.6, 7.275958E-012, -287925.6, 0, 0
Capacitor.CAP1, 7.275958E-012, -299168.4, 7.275958E-012, -299168.4, 0, 0
Line.LV1FMAI1, 46.33417, 8.770332, 46.33417, 8.770332, 0, 0
Line.LV1FMAI2, 453.0172, 85.60698, 453.0172, 85.60698, 0, 0
Line.LV1FMAI3, 58.56562, 11.37402, 58.56562, 11.37402, 0, 0
Line.LV1FMAI4, 0.2464785, 0.04500267, 0.2464785, 0.04500267, 0, 0
Line.LV1FMAI5, 0.503612, 0.09195064, 0.503612, 0.09195064, 0, 0
Line.LV1FMAI6, 266.8956, 49.52814, 266.8956, 49.52814, 0, 0
Line.LV1FMAI7, 0.4821375, 0.08802978, 0.4821375, 0.08802978, 0, 0
Line.LV1FMAI8, 0.4839354, 0.4586061, 0.4839354, 0.4586061, 0, 0
Line.LV1FMAI9, 0.03894251, 0.007110226, 0.03894251, 0.007110226, 0, 0
Line.LV1FMAI10, 0.48214, 0.08803022, 0.48214, 0.08803022, 0, 0
Line.LV1FMAI11, 109.1387, 20.51246, 109.1387, 20.51246, 0, 0
Line.LV1FMAI12, 0.1912918, 0.03492654, 0.1912918, 0.03492654, 0, 0
Line.LV1FMAI13, 0.05512489, 0.01006485, 0.05512489, 0.01006485, 0, 0
Line.LV1FMAI14, 0.3844417, 0.07019226, 0.3844417, 0.07019226, 0, 0
Line.LV1FMAI15, 0.5396186, 0.09852476, 0.5396186, 0.09852476, 0, 0
Line.LV1FMAI16, 0.1912918, 0.03492654, 0.1912918, 0.03492654, 0, 0
Line.LV1FMAI17, 39.72361, 7.286314, 39.72361, 7.286314, 0, 0
Line.LV1FMAI18, 0.6796238, 0.6440511, 0.6796238, 0.6440511, 0, 0
Line.LV1FMAI19, 0.1949103, 0.0355872, 0.1949103, 0.0355872, 0, 0
Line.LV1FMAI20, 0.3260926, 0.05953876, 0.3260926, 0.05953876, 0, 0
Line.LV1FMAI21, 0.2877585, 0.05253964, 0.2877585, 0.05253964, 0, 0
Line.LV1FMAI22, 0.4182681, 0.07636834, 0.4182681, 0.07636834, 0, 0
Line.LV1FMAI23, 0.2044718, 0.03733296, 0.2044718, 0.03733296, 0, 0
Line.LV1FMAI24, 0.3845186, 0.0702063, 0.3845186, 0.0702063, 0, 0
Line.LV1FMAI25, 0.2872807, 0.0524524, 0.2872807, 0.0524524, 0, 0
Line.LV1FMAI26, 0.3518666, 0.06426684, 0.3518666, 0.06426684, 0, 0
Line.LV1FMAI27, 0.3100319, 0.05662593, 0.3100319, 0.05662593, 0, 0
Line.LV1FMAI28, 0.3100294, 0.05662548, 0.3100294, 0.05662548, 0, 0
Line.LV1FMAI29, 28.46005, 6.116917, 28.46005, 6.116917, 0, 0
Line.LV1FMAI30, 0.8464809, 0.1545522, 0.8464809, 0.1545522, 0, 0
Line.LV1FMAI31, 0.8464809, 0.1545522, 0.8464809, 0.1545522, 0, 0
Line.LV1FMAI32, 0.2022723, 0.03693138, 0.2022723, 0.03693138, 0, 0
Line.LV1FMAI33, 0.9213609, 0.1682238, 0.9213609, 0.1682238, 0, 0
Line.LV1FMAI34, 0.4623766, 0.08442178, 0.4623766, 0.08442178, 0, 0
Line.LV1FMAI35, 0.4538637, 0.08286748, 0.4538637, 0.08286748, 0, 0
Line.LV1FMAI36, 0.9209448, 0.8726641, 0.9209448, 0.8726641, 0, 0
Line.LV1FMAI37, 0.02437727, 0.004450866, 0.02437727, 0.004450866, 0, 0
Line.LV1FMAI38, 46.33038, 9.598224, 46.33038, 9.598224, 0, 0
Line.LV1FMAI39, -3.823044E-011, -0.0009424901, -3.823044E-011, -0.0009424901, 0, 0
Line.LV1FMAI40, 782.2141, 164.9359, 782.2141, 164.9359, 0, 0
Line.LV1FMAI41, 0.3483277, 0.06359851, 0.3483277, 0.06359851, 0, 0
Line.LV1FMAI42, 0.4085301, 0.07459039, 0.4085301, 0.07459039, 0, 0
Line.LV1FMAI43, 373.4297, 76.27681, 373.4297, 76.27681, 0, 0
Line.LV1FMAI44, 0.5790156, 0.5486934, 0.5790156, 0.5486934, 0, 0
Line.LV1FMAI45, 66.09154, 12.41664, 66.09154, 12.41664, 0, 0
Line.LV1FMAI46, 23.24202, 4.600597, 23.24202, 4.600597, 0, 0
Line.LV1FMAI47, 0.3484233, 0.06361587, 0.3484233, 0.06361587, 0, 0
Line.LV1FMAI48, 0.6117302, 0.5796622, 0.6117302, 0.5796622, 0, 0
Line.LV1FMAI49, 0.3001897, 0.05480929, 0.3001897, 0.05480929, 0, 0
Line.LV1FMAI50, 0.6329987, 0.5998157, 0.6329987, 0.5998157, 0, 0
Line.LV1FMAI51, 0.3451227, 0.06301324, 0.3451227, 0.06301324, 0, 0
Line.LV1FMAI52, 0.2088654, 0.03813511, 0.2088654, 0.03813511, 0, 0
Line.LV1FMAI53, 0.6851049, 0.6491901, 0.6851049, 0.6491901, 0, 0
Line.LV1FMAI54, 0.2088654, 0.03813511, 0.2088654, 0.03813511, 0, 0
Line.LV1FMAI55, 8.611988, 1.579341, 8.611988, 1.579341, 0, 0
Line.LV1FMAI56, 0.5007287, 0.4744734, 0.5007287, 0.4744734, 0, 0
Line.LV1FMAI57, 0.1521931, 0.02778777, 0.1521931, 0.02778777, 0, 0
Line.LV1FMAI58, 0.05991213, 0.0109389, 0.05991213, 0.0109389, 0, 0
Line.LV1FMAI59, 0.0665125, 0.01214401, 0.0665125, 0.01214401, 0, 0
Line.LV1FMAI60, 0.2679139, 0.04891631, 0.2679139, 0.04891631, 0, 0
Line.LV1FMAI61, 0.2781392, 0.05078325, 0.2781392, 0.05078325, 0, 0
Line.LV1FMAI62, 0.1556371, 0.02841658, 0.1556371, 0.02841658, 0, 0
Line.LV1FMAI63, 0.1234309, 0.0225363, 0.1234309, 0.0225363, 0, 0
Line.LV1FMAI64, 0.2406594, 0.04394013, 0.2406594, 0.04394013, 0, 0
Line.LV1FMAI65, 0.008560636, 0.001540932, 0.008560636, 0.001540932, 0, 0
Line.LV1FMAI66, 0.004280319, 0.0007704678, 0.004280319, 0.0007704678, 0, 0
Line.LV1FMAI67, 0.03423912, 0.006251459, 0.03423912, 0.006251459, 0, 0
Line.LV1FMAI68, 2.638161, 0.483399, 2.638161, 0.483399, 0, 0
Line.LV1FMAI69, 0.2393829, 0.04370706, 0.2393829, 0.04370706, 0, 0
Line.LV1FMAI70, 0.1213914, 0.02216392, 0.1213914, 0.02216392, 0, 0
Line.LV1FMAI71, 0.2461085, 0.2332046, 0.2461085, 0.2332046, 0, 0
Line.LV1FMAI72, 0.2393829, 0.04370706, 0.2393829, 0.04370706, 0, 0
Line.LV1FMAI73, 3.896768E-011, -0.0005758241, 3.896768E-011, -0.0005758241, 0, 0
Line.LV1FMAI74, 0.2972222, 0.05428624, 0.2972222, 0.05428624, 0, 0
Line.LV1FMAI75, 0.3105306, 0.05669734, 0.3105306, 0.05669734, 0, 0
Line.LV1FMAI76, 0.004280318, 0.0007704647, 0.004280318, 0.0007704647, 0, 0
Line.LV1FMAI77, 9.009183, 1.652613, 9.009183, 1.652613, 0, 0
Line.LV1FMAI78, 62.66642, 11.49514, 62.66642, 11.49514, 0, 0
Line.LV1FMAI79, 0.2976554, 0.05434666, 0.2976554, 0.05434666, 0, 0
Line.LV1FMAI80, 0.1531221, 0.02795743, 0.1531221, 0.02795743, 0, 0
Line.LV1FMAI81, 9.413678, 1.726741, 9.413678, 1.726741, 0, 0
Line.LV1FMAI82, 36.876, 6.763738, 36.876, 6.763738, 0, 0
Line.LV1FMAI83, 0.08322592, 0.01519561, 0.08322592, 0.01519561, 0, 0
Line.LV1FMAI84, 0.08322592, 0.01519561, 0.08322592, 0.01519561, 0, 0
Line.LV1FMAI85, 0.2471289, 0.04512136, 0.2471289, 0.04512136, 0, 0
Line.LV1FMAI86, 0.807927, 0.147513, 0.807927, 0.147513, 0, 0
Line.LV1FMAI87, 0.1227989, 0.02242094, 0.1227989, 0.02242094, 0, 0
Line.LV1FMAI88, 1.178613, 0.2151931, 1.178613, 0.2151931, 0, 0
Line.LV1FMAI89, 0.1495845, 0.02731153, 0.1495845, 0.02731153, 0, 0
Line.LV1FMAI90, 3.261933, 0.5982989, 3.261933, 0.5982989, 0, 0
Line.LV1FMAI91, -1.335631E-010, -0.0003310665, -1.335631E-010, -0.0003310665, 0, 0
Line.LV1FMAI92, 4.973971, 0.9121692, 4.973971, 0.9121692, 0, 0
Line.LV1FMAI93, 0.2264997, 0.04135489, 0.2264997, 0.04135489, 0, 0
Line.LV1FMAI94, 2.926978, 0.5368806, 2.926978, 0.5368806, 0, 0
Line.LV1FMAI95, 0.53991, 0.09857788, 0.53991, 0.09857788, 0, 0
Line.LV1FMAI96, 7.616473, 1.396775, 7.616473, 1.396775, 0, 0
Line.LV1FMAI97, 0.1386678, 0.02531833, 0.1386678, 0.02531833, 0, 0
Line.LV1FMAI98, 0.1386678, 0.02531833, 0.1386678, 0.02531833, 0, 0
Line.LV1FMAI99, 0.2693238, 0.0491738, 0.2693238, 0.0491738, 0, 0
Line.LV1FMAI100, 0.6395552, 0.1167714, 0.6395552, 0.1167714, 0, 0
Line.LV1FMAI101, 9.149056, 1.678271, 9.149056, 1.678271, 0, 0
Line.LV1FMAI102, 0.7452329, 0.1360654, 0.7452329, 0.1360654, 0, 0
Line.LV1FMAI103, 52.58183, 9.644815, 52.58183, 9.644815, 0, 0
Line.LV1FMAI104, 0.3537298, 0.06458485, 0.3537298, 0.06458485, 0, 0
Line.LV1FMAI105, 0.1543627, 0.02818394, 0.1543627, 0.02818394, 0, 0
Line.LV1FMAI106, 0.1543627, 0.02818394, 0.1543627, 0.02818394, 0, 0
Line.LV1FMAI107, 0.4986545, 0.09104549, 0.4986545, 0.09104549, 0, 0
Line.LV1FMAI108, 0.7690159, 0.1404086, 0.7690159, 0.1404086, 0, 0
Line.LV1FMAI109, 0.1813442, 0.03311029, 0.1813442, 0.03311029, 0, 0
Line.LV1FMAI110, 0.4862943, 0.08878875, 0.4862943, 0.08878875, 0, 0
Line.LV1FMAI111, 0.1643355, 0.03000479, 0.1643355, 0.03000479, 0, 0
Line.LV1FMAI112, 0.4862917, 0.08878827, 0.4862917, 0.08878827, 0, 0
Line.LV1FMAI113, 0.04109027, 0.007396371, 0.04109027, 0.007396371, 0, 0
Line.LV1FMAI114, 0.04109027, 0.007396369, 0.04109027, 0.007396369, 0, 0
Line.LV1FMAI115, 0.02054513, 0.003698182, 0.02054513, 0.003698182, 0, 0
Line.LV1FMAI116, 0.02054481, 0.003698123, 0.02054481, 0.003698123, 0, 0
Line.LV1FMAI117, 0.1643355, 0.03000479, 0.1643355, 0.03000479, 0, 0
Line.LV1FMAI118, 7.54696, 1.417429, 7.54696, 1.417429, 0, 0
Line.LV1FMAI119, 139.3716, 26.17603, 139.3716, 26.17603, 0, 0
Line.LV1FMAI120, 0.07450932, 0.01360411, 0.07450932, 0.01360411, 0, 0
Line.LV1FMAI121, 84.12361, 15.98135, 84.12361, 15.98135, 0, 0
Line.LV1FMAI122, 0.1983256, 0.0362233, 0.1983256, 0.0362233, 0, 0
Line.LV1FMAI123, 0.3559134, 0.06500599, 0.3559134, 0.06500599, 0, 0
Line.LV1FMAI124, 0.4303269, 0.07859727, 0.4303269, 0.07859727, 0, 0
Line.LV1FMAI125, 0.4746778, 0.08669774, 0.4746778, 0.08669774, 0, 0
Line.LV1FMAI126, 0.1195308, 0.02183178, 0.1195308, 0.02183178, 0, 0
Line.LV1FMAI127, 0.9530081, 0.903239, 0.9530081, 0.903239, 0, 0
Line.LV1FMAI128, 0.3303538, 0.06033766, 0.3303538, 0.06033766, 0, 0
Line.LV1FMAI129, 0.4746724, 0.08669676, 0.4746724, 0.08669676, 0, 0
Line.LV1FMAI130, 0.3303592, 0.06033864, 0.3303592, 0.06033864, 0, 0
Line.LV1FMAI131, 0.1195146, 0.02182883, 0.1195146, 0.02182883, 0, 0
Line.LV1FMAI132, 0.4302515, 0.0785835, 0.4302515, 0.0785835, 0, 0
Line.LV1FMAI133, 6.766842, 1.241272, 6.766842, 1.241272, 0, 0
Line.LV1FMAI134, 34.82552, 6.387703, 34.82552, 6.387703, 0, 0
Line.LV1FMAI135, 9.630981, 1.765874, 9.630981, 1.765874, 0, 0
Line.LV1FMAI136, 0.305975, 0.05588498, 0.305975, 0.05588498, 0, 0
Line.LV1FMAI137, 0.2016084, 0.03682289, 0.2016084, 0.03682289, 0, 0
Line.LV1FMAI138, 15.87154, 2.910722, 15.87154, 2.910722, 0, 0
Line.LV1FMAI139, 0.3213757, 0.05869785, 0.3213757, 0.05869785, 0, 0
Line.LV1FMAI140, 0.1955512, 0.03571658, 0.1955512, 0.03571658, 0, 0
Line.LV1FMAI141, -9.188706E-012, -0.000878196, -9.188706E-012, -0.000878196, 0, 0
Line.LV1FMAI142, 0.291553, 0.05325087, 0.291553, 0.05325087, 0, 0
Line.LV1FMAI143, 0.2908992, 0.05313145, 0.2908992, 0.05313145, 0, 0
Line.LV1FMAI144, 0.2897019, 0.05291278, 0.2897019, 0.05291278, 0, 0
Line.LV1FMAI145, 0.3332724, 0.06087073, 0.3332724, 0.06087073, 0, 0
Line.LV1FMAI146, 4.394533, 0.8052671, 4.394533, 0.8052671, 0, 0
Line.LV1FMAI147, 0.5763894, 0.1052749, 0.5763894, 0.1052749, 0, 0
Line.LV1FMAI148, 0.1074688, 0.01962871, 0.1074688, 0.01962871, 0, 0
Line.LV1FMAI149, 0.1073436, 0.01960586, 0.1073436, 0.01960586, 0, 0
Line.LV1FMAI150, 6.531322, 1.198068, 6.531322, 1.198068, 0, 0
Line.LV1FMAI151, 11.95428, 2.191861, 11.95428, 2.191861, 0, 0
Line.LV1FMAI152, 45.81887, 8.403572, 45.81887, 8.403572, 0, 0
Line.LV1FMAI153, 0.5042653, 0.09210177, 0.5042653, 0.09210177, 0, 0
Line.LV1FMAI154, 0.5042653, 0.09210177, 0.5042653, 0.09210177, 0, 0
Line.LV1FMAI155, 0.09720623, 0.01774817, 0.09720623, 0.01774817, 0, 0
Line.LV1FMAI156, 0.8676151, 0.1584109, 0.8676151, 0.1584109, 0, 0
Line.LV1FMAI157, 1.583764, 1.500174, 1.583764, 1.500174, 0, 0
Line.LV1FMAI158, 0.5993448, 0.1094676, 0.5993448, 0.1094676, 0, 0
Line.LV1FMAI159, 0.5993448, 0.1094676, 0.5993448, 0.1094676, 0, 0
Line.LV1FMAI160, 0.1555094, 0.02840312, 0.1555094, 0.02840312, 0, 0
Line.LV1FMAI161, 3.599382, 0.6595598, 3.599382, 0.6595598, 0, 0
Line.LV1FMAI162, 0.1046617, 0.01883937, 0.1046617, 0.01883937, 0, 0
Line.LV1FMAI163, 0.1046604, 0.01883913, 0.1046604, 0.01883913, 0, 0
Line.LV1FMAI164, 0.05233051, 0.009419607, 0.05233051, 0.009419607, 0, 0
Line.LV1FMAI165, 0.05233019, 0.009419551, 0.05233019, 0.009419551, 0, 0
Line.LV1FMAI166, 0.1046604, 0.01883914, 0.1046604, 0.01883914, 0, 0
Line.LV1FMAI167, 0.05232987, 0.009419492, 0.05232987, 0.009419492, 0, 0
Line.LV1FMAI168, 1.111204, 0.2029539, 1.111204, 0.2029539, 0, 0
Line.LV1FMAI169, 0.6891367, 0.1258676, 0.6891367, 0.1258676, 0, 0
Line.LV1FMAI170, 1.109667, 0.2026747, 1.109667, 0.2026747, 0, 0
Line.LV1FMAI171, -4.198637E-011, -0.0008606134, -4.198637E-011, -0.0008606134, 0, 0
Line.LV1FMAI172, 0.2521881, 0.04606106, 0.2521881, 0.04606106, 0, 0
Line.LV1FMAI173, 7.482536, 1.371899, 7.482536, 1.371899, 0, 0
Line.LV1FMAI174, 0.2912357, 0.05317453, 0.2912357, 0.05317453, 0, 0
Line.LV1FMAI175, 0.2326783, 0.04248298, 0.2326783, 0.04248298, 0, 0
Line.LV1FMAI176, 0.4772985, 0.08714627, 0.4772985, 0.08714627, 0, 0
Line.LV1FMAI177, 20.60782, 3.780301, 20.60782, 3.780301, 0, 0
Line.LV1FMAI178, 61.84286, 11.34434, 61.84286, 11.34434, 0, 0
Line.LV1FMAI179, 15.98458, 2.931699, 15.98458, 2.931699, 0, 0
Line.LV1FMAI180, -6.795375E-011, -0.0009184536, -6.795375E-011, -0.0009184536, 0, 0
Line.LV1FMAI181, 0.2628142, 0.2489407, 0.2628142, 0.2489407, 0, 0
Line.LV1FMAI182, 54.92297, 10.07488, 54.92297, 10.07488, 0, 0
Line.LV1FMAI183, 0.2865382, 0.05231685, 0.2865382, 0.05231685, 0, 0
Line.LV1FMAI184, 0.09119971, 0.01665148, 0.09119971, 0.01665148, 0, 0
Line.LV1FMAI185, 0.3230329, 0.05898014, 0.3230329, 0.05898014, 0, 0
Line.LV1FMAI186, 0.1010693, 0.01819273, 0.1010693, 0.01819273, 0, 0
Line.LV1FMAI187, 0.3486126, 0.06367254, 0.3486126, 0.06367254, 0, 0
Line.LV1FMAI188, 0.0641098, 0.01170534, 0.0641098, 0.01170534, 0, 0
Line.LV1FMAI189, 0.1010693, 0.01819274, 0.1010693, 0.01819274, 0, 0
Line.LV1FMAI190, 0.05053498, 0.009096411, 0.05053498, 0.009096411, 0, 0
Line.LV1FMAI191, 0.05053434, 0.009096294, 0.05053434, 0.009096294, 0, 0
Line.LV1FMAI192, 0.4041328, 0.07378754, 0.4041328, 0.07378754, 0, 0
Line.LV1FMAI193, 0.1990342, 0.03582544, 0.1990342, 0.03582544, 0, 0
Line.LV1FMAI194, 0.1990919, 0.03583589, 0.1990919, 0.03583589, 0, 0
Line.LV1FMAI195, 0.09967894, 0.0179429, 0.09967894, 0.0179429, 0, 0
Line.LV1FMAI196, 0.09969816, 0.01794633, 0.09969816, 0.01794633, 0, 0
Line.LV1FMAI197, 0.8020653, 0.1464428, 0.8020653, 0.1464428, 0, 0
Line.LV1FMAI198, 0.8549618, 0.1561547, 0.8549618, 0.1561547, 0, 0
Line.LV1FMAI199, 0.198841, 0.03579154, 0.198841, 0.03579154, 0, 0
Line.LV1FMAI200, 0.7953012, 0.1452078, 0.7953012, 0.1452078, 0, 0
...
